/*--------------------------------*- C++ -*----------------------------------*\
  =========                 |
  \\      /  F ield         | OpenFOAM: The Open Source CFD Toolbox
   \\    /   O peration     | Website:  https://openfoam.org
    \\  /    A nd           | Version:  8
     \\/     M anipulation  |
\*---------------------------------------------------------------------------*/
FoamFile
{
    version     2.0;
    format      ascii;
    class       dictionary;
    object      surfaceFeaturesDict;
}
// * * * * * * * * * * * * * * * * * * * * * * * * * * * * * * * * * * * * * //


surfaces ("buildings.obj" "terrain.obj" "LoD2_trunk.obj" "LoD2_canopy_broadleaf.obj" "LoD2_canopy_conifer.obj");
includedAngle       170;
writeObj                yes;


//#includeEtc "caseDicts/surface/surfaceFeaturesDict.cfg"

// ************************************************************************* //
